/*--------------------------------*- C++ -*----------------------------------*\
| =========                 |                                                 |
| \\      /  F ield         | OpenFOAM: The Open Source CFD Toolbox           |
|  \\    /   O peration     | Version:  2012                                  |
|   \\  /    A nd           | Website:  www.openfoam.com                      |
|    \\/     M anipulation  |                                                 |
\*---------------------------------------------------------------------------*/
FoamFile
{
    version     2.0;
    format      ascii;
    class       polyBoundaryMesh;
    location    "constant/polyMesh";
    object      boundary;
}
// * * * * * * * * * * * * * * * * * * * * * * * * * * * * * * * * * * * * * //

5
(
    left
    {
        type            patch;
        nFaces          10;
        startFace       1890;
    }
    right
    {
        type            patch;
        nFaces          10;
        startFace       1900;
    }
    bottom
    {
        type            patch;
        nFaces          1000;
        startFace       1910;
    }
    top
    {
        type            patch;
        nFaces          1000;
        startFace       2910;
    }
    empty
    {
        type            empty;
        inGroups        1(empty);
        nFaces          200;
        startFace       3910;
    }
)

// ************************************************************************* //
