/*--------------------------------*- C++ -*----------------------------------*\
| =========                 |                                                 |
| \\      /  F ield         | OpenFOAM: The Open Source CFD Toolbox           |
|  \\    /   O peration     | Version:  2.2.2                                 |
|   \\  /    A nd           | Web:      www.OpenFOAM.org                      |
|    \\/     M anipulation  |                                                 |
\*---------------------------------------------------------------------------*/
FoamFile
{
    version     2.0;
    format      ascii;
    class       dictionary;
    object      extrudeMeshDict;
}
// * * * * * * * * * * * * * * * * * * * * * * * * * * * * * * * * * * * * * //

// What to extrude:
//      patch   : from patch of another case ('sourceCase')
//      mesh    : as above but with original case included
//      surface : from externally read surface

//constructFrom mesh;
constructFrom patch;
//constructFrom surface;

// If construct from patch/mesh:
sourceCase ".";
sourcePatches (bottomEmptyFaces);

// If construct from patch: patch to use for back (can be same as sourcePatch)
exposedPatchName topEmptyFaces;

// If construct from surface:
//surface "movingWall.stl";

// Flip surface normals before usage. Valid only for extrude from surface or
// patch.
flipNormals false; // true;

//- Linear extrusion in point-normal direction
//extrudeModel        linearNormal;

//- Linear extrusion in specified direction
//extrudeModel        linearDirection;

//- Wedge extrusion. If nLayers is 1 assumes symmetry around plane.
extrudeModel        sector; // wedge;//sector;

//- Extrudes into sphere around (0 0 0)
//extrudeModel        linearRadial;

//- Extrudes into sphere around (0 0 0) with specified radii
//extrudeModel        radial;

//- Extrudes into sphere with grading according to pressure (atmospherics)
//extrudeModel        sigmaRadial;

nLayers             1;//24;

expansionRatio      1.0;    //0.9;

wedgeCoeffs
{
    axisPt      (0. 0. 0.);
    axis        (0 1 0);
    angle       10;//90;  // For nLayers=1 assume symmetry so angle/2 on each side
}

    point       (0. 0. 0.); // uncommenting this line make extrudeMesh fail 
    axis        (0 1 0);
    angle       10.;//90;  // For nLayers=1 assume symmetry so angle/2 on each side

linearNormalCoeffs
{
    thickness       0.05;
}

linearDirectionCoeffs
{
    direction       (0 1 0);
    thickness       0.05;
}

linearRadialCoeffs
{
    R               0.1;
    // Optional inner radius
    Rsurface        0.01;
}

radialCoeffs
{
    // Radii specified through interpolation table
    R               table ((0 0.01)(3 0.03)(10 0.1));
}


sigmaRadialCoeffs
{
    RTbyg           1;
    pRef            1;
    pStrat          1;
}

// Do front and back need to be merged? Usually only makes sense for 360
// degree wedges.
mergeFaces false;   //true;

// Merge small edges. Fraction of bounding box.
mergeTol 1e-10; // not sure what this value should be 

// * * * * * * * * * * * * * * * * * * * * * * * * * * * * * * * * * * * * * //
