/*--------------------------------*- C++ -*----------------------------------*\
| =========                 |                                                 |
| \\      /  F ield         | OpenFOAM: The Open Source CFD Toolbox           |
|  \\    /   O peration     | Version:  v2112                                 |
|   \\  /    A nd           | Website:  www.openfoam.com                      |
|    \\/     M anipulation  |                                                 |
\*---------------------------------------------------------------------------*/
FoamFile
{
    version     2.0;
    format      ascii;
    class       volScalarField;
    object      epsilon;
}
// * * * * * * * * * * * * * * * * * * * * * * * * * * * * * * * * * * * * * //

dimensions      [0 2 -3 0 0 0 0];

internalField   uniform 200;

boundaryField
{
    rotor
    {
        type            epsilonWallFunction;
        value           $internalField;
    }
    outlet
    {
        type            zeroGradient;
    }
    stator
    {
        type            epsilonWallFunction;
        value           $internalField;
    }
    nozzle
    {
        type            epsilonWallFunction;
        value           $internalField;
    }
    inlet
    {
        type            fixedValue;
        value           $internalField;
    }
    axis
    {
        type            epsilonWallFunction;
        value           $internalField;
    } 
    bottomEmptyFaces
    {
        type            wedge;
    }
    topEmptyFaces
    {
        type            wedge;
    }
}


// ************************************************************************* //
