/*--------------------------------*- C++ -*----------------------------------*\
  =========                 |
  \\      /  F ield         | OpenFOAM: The Open Source CFD Toolbox
   \\    /   O peration     | Website:  https://openfoam.org
    \\  /    A nd           | Version:  7
     \\/     M anipulation  |
\*---------------------------------------------------------------------------*/
FoamFile
{
    version     2.0;
    format      binary;
    class       volSymmTensorField;
    location    "0";
    object      R;
}
// * * * * * * * * * * * * * * * * * * * * * * * * * * * * * * * * * * * * * //

dimensions      [0 2 -2 0 0 0 0];

internalField   uniform (1.5074  0  0 1.5074  0 1.5074);
boundaryField
{
    upperWall
    {
        type            kqRWallFunction;
        value           uniform (1.5074 0 0 1.5074 0 1.5074);
    }

    lowerWall
    {
        type            kqRWallFunction;
        value           uniform (1.5074 0 0 1.5074 0 1.5074);
    }

    inlet
    {
        type            fixedValue;
        value           uniform (1.5074 0 0 1.5074 0 1.5074); 

  }
    outlet
    {
        type            inletOutlet;
        inletValue      uniform (0 0 0 0 0 0);
        value           uniform (1.5074 0 0 1.5074 0 1.5074);
    }

    frontAndBack
    {
        type            empty;
    }

}


// ************************************************************************* //
