/*--------------------------------*- C++ -*----------------------------------*\
| =========                 |                                                 |
| \\      /  F ield         | OpenFOAM: The Open Source CFD Toolbox           |
|  \\    /   O peration     | Version:  2112                                  |
|   \\  /    A nd           | Website:  www.openfoam.com                      |
|    \\/     M anipulation  |                                                 |
\*---------------------------------------------------------------------------*/
FoamFile
{
    version     2.0;
    format      ascii;
    arch        "LSB;label=32;scalar=64";
    class       polyBoundaryMesh;
    location    "constant/polyMesh";
    object      boundary;
}
// * * * * * * * * * * * * * * * * * * * * * * * * * * * * * * * * * * * * * //

8
(
    rotor
    {
        type            rotorId;
        nFaces          14400;
        startFace       2563560;
    }
    outlet
    {
        type            outletId;
        nFaces          7200;
        startFace       2577960;
    }
    stator
    {
        type            statorId;
        nFaces          7380;
        startFace       2585160;
    }
    nozzle
    {
        type            nozzleId;
        nFaces          7380;
        startFace       2592540;
    }
    inlet
    {
        type            inletId;
        nFaces          7200;
        startFace       2599920;
    }
    axis
    {
        type            axisId;
        nFaces          0;
        startFace       2607120;
    }
    bottomEmptyFaces
    {
        type            empty;
        inGroups        1(empty);
        nFaces          0;
        startFace       2607120;
    }
    topEmptyFaces
    {
        type            empty;
        inGroups        1(empty);
        nFaces          0;
        startFace       2607120;
    }
)

// ************************************************************************* //
