/*--------------------------------*- C++ -*----------------------------------*\
| =========                 |                                                 |
| \\      /  F ield         | OpenFOAM: The Open Source CFD Toolbox           |
|  \\    /   O peration     | Version:  v2012                                 |
|   \\  /    A nd           | Website:  www.openfoam.com                      |
|    \\/     M anipulation  |                                                 |
\*---------------------------------------------------------------------------*/
FoamFile
{
    version     2.0;
    format      ascii;
    class       dictionary;
    object      blockMeshDict;
}
// * * * * * * * * * * * * * * * * * * * * * * * * * * * * * * * * * * * * * //

scale   1;

vertices
(
    (-4 -1 -1)
    (4 -1 -1)
    (4 1 -1)
    (-4 1 -1)
    (-4 -1 1)
    (4 -1 1)
    (4 1 1)
    (-4 1 1)
);

blocks
(
//    hex (0 1 2 3 4 5 6 7) (160000 1 1) simpleGrading (1 1 1)
  hex (0 1 2 3 4 5 6 7) (3 1 1) edgeGrading (1 1 1 1 2 2 2 2 3 3 3 3)
);

edges
(
);

boundary
(
    left
    {
        type patch;
        faces
        (
            (1 2 6 5)
        );
    }
    right
    {
        type patch;
        faces
        (
            (0 4 7 3)
        );
    }
    empty
    {
        type empty;
        faces
        (
            (0 1 5 4)
            (5 6 7 4)
            (3 7 6 2)
            (0 3 2 1)
        );
    }
);

mergePatchPairs
(
);

// ************************************************************************* //
