/*--------------------------------*- C++ -*----------------------------------*\
| =========                 |                                                 |
| \\      /  F ield         | OpenFOAM: The Open Source CFD Toolbox           |
|  \\    /   O peration     | Version:  v1906                                 |
|   \\  /    A nd           | Web:      www.OpenFOAM.com                      |
|    \\/     M anipulation  |                                                 |
\*---------------------------------------------------------------------------*/
FoamFile
{
    version     2.0;
    format      ascii;
    class       dictionary;
    location    "system";
    object      fvSolution;
}
// * * * * * * * * * * * * * * * * * * * * * * * * * * * * * * * * * * * * * //

solvers
{
    p
    {
        solver          GAMG;
        tolerance       1e-06;
        relTol          0.1;
        smoother        GaussSeidel;
    }

    "(U|k|epsilon|omega|f|v2|R)"
    {
        solver          smoothSolver;
        smoother        symGaussSeidel;
        tolerance       1e-05;
        relTol          0.1;
        minIter         1;
    }
}

SIMPLE
{
    nNonOrthogonalCorrectors 0;
    consistent      yes;

    residualControl
    {
        p               1e-2;
        U               1e-3;
        "(k|epsilon|omega|f|v2|R)" 1e-3;
    }
}

relaxationFactors
{
    equations
    {
        p               0.7; // 0.9;
        U               0.7; // 0.9; // 0.9 is more stable but 0.95 more convergent
        R               0.5; // choosing values closer to one makes simulations diverge
        epsilon         0.5; // to prevent the value of from blowing up
        // ".*"            0.8; // 0.5; // 0.9 is more stable but 0.95 more convergent
    }
}


// ************************************************************************* //
