/*--------------------------------*- C++ -*----------------------------------*\
| =========                 |                                                 |
| \\      /  F ield         | OpenFOAM: The Open Source CFD Toolbox           |
|  \\    /   O peration     | Version:  v2012                                 |
|   \\  /    A nd           | Website:  www.openfoam.com                      |
|    \\/     M anipulation  |                                                 |
\*---------------------------------------------------------------------------*/
FoamFile
{
    version     2.0;
    format      ascii;
    class       dictionary;
    location    "system";
    object      fvSolution;
}
// * * * * * * * * * * * * * * * * * * * * * * * * * * * * * * * * * * * * * //

solvers
{

    T 
    {
        solver           GAMG;
        tolerance        0;
        relTol           1e-6;
        smoother         GaussSeidel;
        nFinestSweeps    0; 
        nCellsInCoarsestLevel 1000;
	nPreSweeps       0;
	nPostSweeps      0;
    }

}


// ************************************************************************* //
